 &time_control
 run_days                            = 8,
 run_hours                           = 0,
 run_minutes                         = 0,
 run_seconds                         = 0,
 start_year                          = 2011, 2011,
 start_month                         = 08,   08,
 start_day                           = 07,   07,
 start_hour                          = 00,   00,
 end_year                            = 2011, 2011,
 end_month                           = 08,   08,
 end_day                             = 15,   15,
 end_hour                            = 00,   00,
 interval_seconds                    = 21600
 input_from_file                     = .true.,.true.,
 history_interval                    = 60,  60,
 frames_per_outfile                  = 1, 1,
 auxinput4_inname                    = "wrflowinp_d<domain>" 
 auxinput4_interval                  = 180, 180,      ! minutes generally matches time given by interval_seconds
 io_form_auxinput4                   = 2        ! IO format
 nwp_diagnostics                     = 0        ! set to = 1 to add 7 history-interval max diagnostic fields
 restart                             = .false.,
 restart_interval                    = 7200,
 io_form_history                     = 2
 io_form_restart                     = 2
 io_form_input                       = 2
 io_form_boundary                    = 2
 /

 &domains
 time_step                           = 60,
 time_step_fract_num                 = 0,
 time_step_fract_den                 = 1,
 max_dom                             = 2,
 e_we                                = 101,    121,
 e_sn                                = 101,    121,
 e_vert                              = 45,     45,
 dzstretch_s                         = 1.1
 p_top_requested                     = 5000,
 num_metgrid_levels                  = 38,
 num_metgrid_soil_levels             = 4,
 dx                                  = 10000,
 dy                                  = 10000,
 grid_id                             = 1,     2,
 parent_id                           = 1,     1,
 i_parent_start                      = 1,     39,
 j_parent_start                      = 1,     39,
 parent_grid_ratio                   = 1,     5,
 parent_time_step_ratio              = 1,     5,
 feedback                            = 1,
 smooth_option                       = 0
 /

 &physics
 physics_suite                       = 'CONUS'
 mp_physics                          = -1,    -1,
 cu_physics                          = -1,     0,
 ra_lw_physics                       = -1,    -1,
 ra_sw_physics                       = -1,    -1,
 bl_pbl_physics                      = -1,    -1,
 sf_sfclay_physics                   = -1,    -1,
 sf_surface_physics                  =  4,     4,
 radt                                = 15,    15,
 bldt                                = 0,     0,
 cudt                                = 0,     0,
 icloud                              = 1,
 num_land_cat                        = 21,
 sf_urban_physics                    = 1,     1,
 fractional_seaice                   = 1,
 prec_acc_dt                         = 60, 60,
 sst_update                          = 1,
 /

&noah_mp
 dveg                               = 4,        ! Noah-MP Dynamic Vegetation option:
                                                     ! 1 = Off (LAI from table; FVEG = shdfac)
                                                     ! 2 = On  (LAI predicted;  FVEG calculated)
                                                     ! 3 = Off (LAI from table; FVEG calculated)
                                                     ! 4 = Off (LAI from table; FVEG = maximum veg. fraction)
                                                     ! 5 = On  (LAI predicted;  FVEG = maximum veg. fraction)
                                                     ! 6 = On  (use FVEG = SHDFAC from input)
                                                     ! 7 = Off (use input LAI; use FVEG = SHDFAC from input)
                                                     ! 8 = Off (use input LAI; calculate FVEG)
                                                     ! 9 = Off (use input LAI; use maximum vegetation fraction)
 opt_crs                            = 1,        ! Noah-MP Stomatal Resistance option:
                                                     ! 1 = Ball-Berry
                                                     ! 2 = Jarvis
 opt_sfc                            = 1         ! Noah-MP surface layer drag coefficient calculation
                                                     ! 1 = Monin-Obukhov
                                                     ! 2 = original Noah (Chen97)
 opt_btr                            = 1,        ! Noah-MP Soil Moisture Factor for Stomatal Resistance
                                                     ! 1 = Noah
                                                     ! 2 = CLM
                                                     ! 3 = SSiB
 opt_run                            = 3,        ! Noah-MP Runoff and Groundwater option
                                                     ! 1 = TOPMODEL with groundwater
                                                     ! 2 = TOPMODEL with equilibrium water table
                                                     ! 3 = original surface and subsurface runoff (free drainage) - default
                                                     ! 4 = BATS surface and subsurface runoff (free drainage)
                                                     ! 5 = Miguez-Macho & Fan groundwater scheme (Miguez-Macho et al. 2007 JGR; Fan et al. 2007 JGR)
                                                     !       geogrid must have been run with GEOGRID.TBL.ARW.noahmp, use with caution
                                                     ! 6 = Variable Infiltration Capacity Model surface runoff scheme (Wood et al., 1992, JGR)
                                                     ! 7 = Xiananjiang Infiltration and surface runoff scheme ((Jayawardena and Zhou, 2000)
                                                     ! 8 = Dynamic VIC surface runoff scheme (Liang and Xie, 2001)
 opt_infdv                          = 0,        ! Noah-MP infiltration option in dynamic VIC runoff scheme (only works for opt_run=8)
                                                     ! 1 = Philip scheme
                                                     ! 2 = Green-Ampt scheme
                                                     ! 3 = Smith-Parlange scheme
 opt_frz                            = 1,        ! Noah-MP Supercooled Liquid Water option
                                                     ! 1 = No iteration
                                                     ! 2 = Koren's iteration
 opt_inf                            = 1,        ! Noah-MP Soil Permeability option
                                                     ! 1 = Linear effects, more permeable
                                                     ! 2 = Non-linear effects, less permeable
 opt_rad                            = 3,        ! Noah-MP Radiative Transfer option
                                                     ! 1 = Modified two-stream (known to cause problems when vegetation fraction is small)
                                                     ! 2 = Two-stream applied to grid-cell
                                                     ! 3 = Two-stream applied to vegetated fraction
 opt_alb                            = 2,        ! Noah-MP Ground Surface Albedo option
                                                     ! 1 = BATS
                                                     ! 2 = CLASS
 opt_snf                            = 1,        ! Noah-MP Precipitation Partitioning between snow and rain
                                                     ! 1 = Jordan (1991)
                                                     ! 2 = BATS:  Snow when SFCTMP < TFRZ+2.2
                                                     ! 3 = Snow when SFCTMP < TFRZ
                                                     ! 4 = Use WRF precipitation partitioning
                                                     ! 5 = Use wetbulb temperature (Wang et al., 2019 GRL)
 opt_tbot                           = 2,        ! Noah-MP Soil Temperature Lower Boundary Condition
                                                     ! 1 = Zero heat flux
                                                     ! 2 = TBOT at 8 m from input file
 opt_stc                            = 1,        ! Noah-MP Snow/Soil temperature time scheme
                                                     ! 1 = semi-implicit
                                                     ! 2 = full-implicit
                                                     ! 3 = semi-implicit where Ts uses snow cover fraction
 opt_gla                            = 1,        ! Noah-MP glacier treatment option
                                                     ! 1 = includes phase change
                                                     ! 2 = slab ice (Noah)
 opt_rsf                            = 1,        ! Noah-MP surface evaporation resistance option
                                                     ! 1 = Sakaguchi and Zeng, 2009
                                                     ! 2 = Sellers (1992)
                                                     ! 3 = adjusted Sellers to decrease RSURF for wet soil
                                                     ! 4 = option 1 for non-snow; rsurf = rsurf_snow for snow (set in MPTABLE)
 opt_soil                           = 1,        ! Noah-MP options for defining soil properties
                                                     !       geogrid must have been run with GEOGRID.TBL.ARW.noahmp, use with caution
                                                     ! 1 = use input dominant soil texture
                                                     ! 2 = use input soil texture that varies with depth
                                                     ! 3 = use soil composition (sand, clay, orgm) and pedotransfer functions (OPT_PEDO)
                                                     ! 4 = use input soil properties (BEXP_3D, SMCMAX_3D, etc.) (not valid in WRF)
 opt_pedo                           = 1,        ! Noah-MP options for pedotransfer functions (used when OPT_SOIL = 3)
                                                     !     geogrid must have been run with GEOGRID.TBL.ARW.noahmp, use with caution
                                                     ! 1 = Saxton and Rawls (2006)
 opt_crop                           = 0,        ! options for crop model
                                                     !       geogrid must have been run with GEOGRID.TBL.ARW.noahmp, use with caution
                                                     ! 0 = No crop model, will run default dynamic vegetation
                                                     ! 1 = Liu, et al. 2016
                                                     ! 2 = Gecros (Genotype-by-Environment interaction on CROp growth Simulator) Yin and van Laar, 2005
 
 opt_irr                            = 0,        !  options for irrigation scheme
                                                     !     geogrid must have been run with GEOGRID.TBL.ARW.noahmp, use with caution
	                                                 ! 0 = No irrigation
                                                     ! 1 = Irrigation ON
                                                     ! 2 = irrigation trigger based on crop season Planting and harvesting dates
                                                     ! 3 = irrigation trigger based on LAI threshold
 opt_irrm                           = 0,        !  options for irrigation method (only if opt_irr > 0)
                                                     !     geogrid must have been run with GEOGRID.TBL.ARW.noahmp, use with caution
                                                     ! 0 = method based on geo_em fractions (all three methods are ON)
                                                     ! 1 = sprinkler method
                                                     ! 2 = micro/drip irrigation
                                                     ! 3 = surface flooding  
 opt_tdrn                           = 0,        ! Noah-MP tile drainage option (currently only tested and works with opt_run=3)
                                                     !     geogrid must have been run with GEOGRID.TBL.ARW.noahmp, use with caution
                                                     ! 0 = No tile drainage
                                                     ! 1 = Simple drainage
                                                     ! 2 = Hooghoudt's equation based tile drainage
 soiltstep                          = 0.0,      ! Noa! h-MP soil process timestep (seconds) for solving soil water and temperature
                                                     ! 0 = default, the same as main NoahMP model timestep
                                                     ! N * dt_noahmp, typically 15min or 30min
 noahmp_output                      = 1,        ! Noah-MP output levels
                                                     ! 1 = standard output
                                                     ! 3 = standard output with additional water and energy budget term output
 noahmp_acc_dt                      = 0.0,      ! Noah-MP bucket reset time interval (minutes) between outputs for accumulation (works when noahmp_output=3)
 /

 &fdda
 /

 &dynamics
 hybrid_opt                          = 2, 
 w_damping                           = 0,
 diff_opt                            = 2,      2,
 km_opt                              = 4,      4,
 diff_6th_opt                        = 0,      0,
 diff_6th_factor                     = 0.12,   0.12,
 base_temp                           = 290.
 damp_opt                            = 3,
 zdamp                               = 5000.,  5000.,
 dampcoef                            = 0.2,    0.2,
 khdif                               = 0,      0,
 kvdif                               = 0,      0,
 non_hydrostatic                     = .true., .true.,
 moist_adv_opt                       = 1,      1,
 scalar_adv_opt                      = 1,      1,
 gwd_opt                             = 1,      0,
 /

 &bdy_control
 spec_bdy_width                      = 5,
 specified                           = .true.
 /

 &grib2
 /

 &namelist_quilt
 nio_tasks_per_group = 0,
 nio_groups = 1,
 /
